/*--------------------------------*- C++ -*----------------------------------*\
  =========                 |
  \\      /  F ield         | OpenFOAM: The Open Source CFD Toolbox
   \\    /   O peration     | Website:  https://openfoam.org
    \\  /    A nd           | Version:  11
     \\/     M anipulation  |
\*---------------------------------------------------------------------------*/
FoamFile
{
    format      ascii;
    class       dictionary;
    location    "system";
    object      fvSolution;
}
// * * * * * * * * * * * * * * * * * * * * * * * * * * * * * * * * * * * * * //

solvers
{
    p
    {
        solver          PCG;
        preconditioner  DIC;
        tolerance       1e-06;
        relTol          0.01;
    }

    "(U|k|epsilon|omega|R|nuTilda).*"
    {
        solver          PBiCGStab;
        preconditioner  DILU;

        tolerance       1e-7;
        relTol          0.1;
    }
}

PIMPLE
{
    nNonOrthogonalCorrectors 0;
    consistent          yes;
}

relaxationFactors
{
    equations
    {
        ".*"            0.7;
        "U.*"           0.9;
    }
}


// ************************************************************************* //
